test/test_data/modified_14bus_system.raw
0,   100.00, 33, 0, 1, 60.00     / PSS(R)E 33 RAW created by rawd33  THU, APR 03 2025  15:09


   101,'BUS 101     ', 138.0000,3,   1,   1,   1,1.00000,   0.0000,1.10000,0.90000,1.10000,0.90000
   102,'BUS 102     ', 138.0000,1,   1,   1,   1,0.99896,  -0.3060,1.10000,0.90000,1.10000,0.90000
   103,'BUS 103     ', 138.0000,1,   1,   1,   1,1.00307,  -1.7958,1.10000,0.90000,1.10000,0.90000
   104,'BUS 104     ', 138.0000,1,   1,   1,   1,0.99365,  -2.8783,1.10000,0.90000,1.10000,0.90000
   105,'BUS 105     ', 138.0000,1,   1,   1,   1,0.99365,  -2.8783,1.10000,0.90000,1.10000,0.90000
   106,'BUS 106     ', 230.0000,1,   1,   1,   1,0.99394,  -2.9090,1.10000,0.90000,1.10000,0.90000
   107,'BUS 107     ',  65.0000,1,   1,   1,   1,0.99476,  -2.8576,1.10000,0.90000,1.10000,0.90000
   108,'BUS 108     ',  65.0000,3,   1,   1,   1,1.00000,  11.7593,1.10000,0.90000,1.10000,0.90000
   109,'BUS 109     ', 500.0000,1,   1,   1,   1,0.99627,  -2.9203,1.10000,0.90000,1.10000,0.90000
   110,'BUS 110     ', 230.0000,2,   1,   1,   1,1.00000,  -2.9926,1.10000,0.90000,1.10000,0.90000
   111,'BUS 111     ', 230.0000,1,   1,   1,   1,0.98996,  -3.0408,1.10000,0.90000,1.10000,0.90000
   112,'BUS 112     ', 230.0000,1,   1,   1,   1,0.99941,  -3.0972,1.10000,0.90000,1.10000,0.90000
   113,'BUS 113     ', 230.0000,1,   1,   1,   1,0.99941,  -3.0972,1.10000,0.90000,1.10000,0.90000
   114,'BUS 114     ', 500.0000,1,   1,   1,   1,0.99959,  -3.1078,1.10000,0.90000,1.10000,0.90000
   200,' BUS 200    ', 500.0000,1,   1,   1,   1,0.99965,  -3.0851,1.10000,0.90000,1.10000,0.90000
   201,'BUS 201     ', 500.0000,1,   1,   1,   1,0.99920,  -3.1048,1.10000,0.90000,1.10000,0.90000
   301,'BUS 301     ', 500.0000,1,   1,   1,   1,0.99912,  -3.1502,1.10000,0.90000,1.10000,0.90000
   401,'BUS 401     ', 500.0000,1,   1,   1,   1,0.99889,  -2.9786,1.10000,0.90000,1.10000,0.90000
   501,'BUS 501     ', 500.0000,1,   1,   1,   1,0.99894,  -3.0975,1.10000,0.90000,1.10000,0.90000
   601,'BUS 601     ', 500.0000,1,   1,   1,   1,0.99662,  -2.9299,1.10000,0.90000,1.10000,0.90000
0 / END OF BUS DATA, BEGIN LOAD DATA
   101,'1 ',1,   1,   1,   200.000,   500.000,     0.000,     0.000,     0.000,     0.000,   1,1,0
   102,'1 ',1,   1,   1,   200.000,  -350.000,    20.000,     0.000,     0.000,     0.000,   1,1,0
   103,'1 ',1,   1,   1,   105.000,    65.000,     0.000,     0.000,     0.000,     0.000,   1,1,0
   104,'1 ',1,   1,   1,   500.000,   180.000,     0.000,     0.000,     0.000,     0.000,   1,1,0
   105,'1 ',1,   1,   1,   500.000,  -350.000,     0.000,     0.000,     0.000,     0.000,   1,1,0
   106,'1 ',1,   1,   1,    80.000,    20.000,     0.000,     0.000,     0.000,     0.000,   1,1,0
   109,'1 ',1,   1,   1,   300.000,   100.000,     0.000,     0.000,     0.000,     0.000,   1,1,0
   110,'1 ',1,   1,   1,   100.000,  -500.000,     0.000,     0.000,     0.000,     0.000,   1,1,0
   110,'2 ',1,   1,   1,   150.000,  -500.000,     0.000,     0.000,     0.000,     0.000,   1,1,0
   111,'1 ',1,   1,   1,   250.000,   100.000,     0.000,     0.000,     0.000,     0.000,   1,1,0
   112,'1 ',1,   1,   1,   325.000,    23.000,     0.000,     0.000,     0.000,     0.000,   1,1,0
   113,'1 ',1,   1,   1,   250.000,   100.000,     0.000,     0.000,     0.000,     0.000,   1,1,0
   114,'1 ',1,   1,   1,   500.000,  -250.000,     0.000,     0.000,     0.000,     0.000,   1,1,0
0 / END OF LOAD DATA, BEGIN FIXED SHUNT DATA
   102,'1 ',1,    50.000,  -300.000
   106,'1 ',1,    80.000,    30.000
   110,'1 ',1,    20.000,   400.000
   111,'1 ',1,   100.000,   200.000
0 / END OF FIXED SHUNT DATA, BEGIN GENERATOR DATA
   101,'1 ',  2088.167, -2446.801,  9999.000, -9999.000,1.00000,     0,   100.000, 0.00000E+0, 1.00000E+0, 0.00000E+0, 0.00000E+0,1.00000,1,  100.0,  9999.000, -9999.000,   1,1.0000
   101,'2 ',  1089.478, -1276.592,  9999.000, -9999.000,1.00000,     0,   100.000, 0.00000E+0, 1.00000E+0, 0.00000E+0, 0.00000E+0,1.00000,1,  100.0,  9999.000, -9999.000,   1,1.0000
   102,'1 ',   300.000,   -50.000,  9999.000, -9999.000,1.00000,     0,   100.000, 0.00000E+0, 1.00000E+0, 0.00000E+0, 0.00000E+0,1.00000,1,  100.0,  9999.000, -9999.000,   1,1.0000
   106,'1 ',   200.000,   -50.000,  9999.000, -9999.000,1.00000,     0,   100.000, 0.00000E+0, 1.00000E+0, 0.00000E+0, 0.00000E+0,1.00000,1,  100.0,  9999.000, -9999.000,   1,1.0000
   108,'1 ',   500.273,    -4.997,  9999.000, -9999.000,1.00000,     0,   100.000, 0.00000E+0, 1.00000E+0, 0.00000E+0, 0.00000E+0,1.00000,1,  100.0,  9999.000, -9999.000,   1,1.0000
   110,'1 ',   300.000,  2708.623,  9999.000, -9999.000,1.00000,     0,   100.000, 0.00000E+0, 1.00000E+0, 0.00000E+0, 0.00000E+0,1.00000,1,  100.0,  9999.000, -9999.000,   1,1.0000
   111,'1 ',    90.000,   784.759,  9999.000, -9999.000,1.00000,     0,   100.000, 0.00000E+0, 1.00000E+0, 0.00000E+0, 0.00000E+0,1.00000,1,  100.0,  9999.000, -9999.000,   1,1.0000
0 / END OF GENERATOR DATA, BEGIN BRANCH DATA
   101,   102,'1 ', 1.25000E-4, 1.00000E-4,   0.00120,    0.00,    0.00,    0.00,  0.00000,  0.00000,  0.00000,  0.00000,1,1,   0.00,   1,1.0000
   101,   105,'1 ', 2.50000E-3, 1.00000E-4,   0.00230,    0.00,    0.00,    0.00,  0.00000,  0.00000,  0.00000,  0.00000,1,1,   0.00,   1,1.0000
   102,   103,'1 ', 1.28000E-3, 8.10000E-3,   0.00196,    0.00,    0.00,    0.00,  0.00000,  0.00000,  0.00000,  0.00000,1,1,   0.00,   1,1.0000
   102,   104,'1 ', 3.40000E-3, 4.10000E-3,   0.00026,    0.00,    0.00,    0.00,  0.00000,  0.00000,  0.00000,  0.00000,1,1,   0.00,   1,1.0000
   102,   105,'1 ', 1.88000E-3, 1.10400E-3,   0.00315,    0.00,    0.00,    0.00,  0.00000,  0.00000,  0.00000,  0.00000,1,2,   0.00,   1,1.0000
   103,   104,'1 ', 7.45000E-3, 3.15000E-3,   0.00342,    0.00,    0.00,    0.00,  0.00000,  0.00000,  0.00000,  0.00000,1,1,   0.00,   1,1.0000
   104,   105,'*1',-0.00000E+0, 1.00000E-4,   0.00000,    0.00,    0.00,    0.00,  0.00000,  0.00000,  0.00000,  0.00000,1,2,   0.00,   1,1.0000
   106,   111,'1 ', 1.34000E-3, 1.34500E-4,   0.00024,    0.00,    0.00,    0.00,  0.00000,  0.00000,  0.00000,  0.00000,1,2,   0.00,   1,1.0000
   106,   111,'2 ', 1.25000E-2, 8.10000E-3,   0.00535,    0.00,    0.00,    0.00,  0.00000,  0.00000,  0.00000,  0.00000,1,2,   0.00,   1,1.0000
   106,   112,'1 ', 1.45600E-3, 4.10000E-3,   0.00734,    0.00,    0.00,    0.00,  0.00000,  0.00000,  0.00000,  0.00000,1,2,   0.00,   1,1.0000
   107,   108,'1 ', 7.98000E-3, 5.01000E-2,   0.00056,    0.00,    0.00,    0.00,  0.00000,  0.00000,  0.00000,  0.00000,1,1,   0.00,   1,1.0000
   109,   401,'1 ', 1.23000E-3, 7.10000E-3,   0.00340,    0.00,    0.00,    0.00,  0.00000,  0.00000,  0.00000,  0.00000,1,2,   0.00,   1,1.0000
   109,   501,'1 ', 7.53000E-2, 4.10000E-3,   0.00350,    0.00,    0.00,    0.00,  0.00000,  0.00000,  0.00000,  0.00000,1,2,   0.00,   1,1.0000
   109,   601,'1 ', 1.88000E-3, 2.10000E-3,   0.05634,    0.00,    0.00,    0.00,  0.00000,  0.00000,  0.00000,  0.00000,1,2,   0.00,   1,1.0000
   110,   111,'1 ', 3.56000E-3, 2.41000E-2,   0.00502,    0.00,    0.00,    0.00,  0.00000,  0.00000,  0.00000,  0.00000,1,1,   0.00,   1,1.0000
   112,   113,'@1',-0.00000E+0, 1.00000E-4,   0.00000,    0.00,    0.00,    0.00,  0.00000,  0.00000,  0.00000,  0.00000,1,1,   0.00,   1,1.0000
   114,   200,'1 ', 1.24000E-3, 1.00000E-4,   0.04400,    0.00,    0.00,    0.00,  0.00000,  0.00000,  0.00000,  0.00000,1,1,   0.00,   1,1.0000
   114,   201,'1 ', 6.44300E-3, 5.10000E-3,   0.00235,    0.00,    0.00,    0.00,  0.00000,  0.00000,  0.00000,  0.00000,1,1,   0.00,   1,1.0000
   114,   301,'1 ', 2.30000E-3, 2.01000E-2,   0.06400,    0.00,    0.00,    0.00,  0.00000,  0.00000,  0.00000,  0.00000,1,1,   0.00,   1,1.0000
   200,   401,'1 ', 4.53000E-3, 3.10000E-3,   0.04580,    0.00,    0.00,    0.00,  0.00000,  0.00000,  0.00000,  0.00000,1,1,   0.00,   1,1.0000
   201,   501,'1 ', 5.34300E-3, 2.31000E-3,   0.00556,    0.00,    0.00,    0.00,  0.00000,  0.00000,  0.00000,  0.00000,1,1,   0.00,   1,1.0000
   301,   601,'1 ', 5.23000E-2, 6.01000E-3,   0.05340,    0.00,    0.00,    0.00,  0.00000,  0.00000,  0.00000,  0.00000,1,1,   0.00,   1,1.0000
0 / END OF BRANCH DATA, BEGIN TRANSFORMER DATA
   109,   104,     0,'1 ',1,1,1, 0.00000E+0, 0.00000E+0,2,'TRAFO 2W 3  ',1,   1,1.0000,   0,1.0000,   0,1.0000,   0,1.0000,'            '
 0.00000E+0, 1.00000E-4,   100.00
1.00000,   0.000,   0.000,     0.00,     0.00,     0.00, 0,      0, 1.10000, 0.90000, 1.10000, 0.90000,  33, 4, 0.00000, 0.00000,  0.000
1.00000,   0.000
   106,   105,     0,'1 ',1,1,1, 0.00000E+0, 0.00000E+0,2,'TRAFO 2W 1  ',1,   1,1.0000,   0,1.0000,   0,1.0000,   0,1.0000,'            '
 0.00000E+0, 1.00000E-4,   100.00
1.00000,   0.000,   0.000,     0.00,     0.00,     0.00, 0,      0, 1.10000, 0.90000, 1.10000, 0.90000,  33, 7, 0.00000, 0.00000,  0.000
1.00000,   0.000
   110,   109,     0,'1 ',1,1,1, 0.00000E+0, 0.00000E+0,2,'TRAFO 2W 2  ',1,   1,1.0000,   0,1.0000,   0,1.0000,   0,1.0000,'            '
 0.00000E+0, 1.00000E-4,   100.00
1.00000,   0.000,   0.000,     0.00,     0.00,     0.00, 0,      0, 1.10000, 0.90000, 1.10000, 0.90000,  33, 3, 0.00000, 0.00000,  0.000
1.00000,   0.000
   109,   104,   107,'1 ',1,1,1, 0.00000E+0, 0.00000E+0,2,'TRAFO 3W 2  ',1,   1,1.0000,   0,1.0000,   0,1.0000,   0,1.0000,'            '
 0.00000E+0, 2.00000E-4,   100.00, 0.00000E+0, 2.00000E-4,   100.00, 0.00000E+0, 2.00000E-4,   100.00,0.99489,  -2.8854
1.00000,   0.000,   0.000,     0.00,     0.00,     0.00, 0,      0, 1.10000, 0.90000, 1.10000, 0.90000,  33, 1, 0.00000, 0.00000,  0.000
1.00000,   0.000,   0.000,     0.00,     0.00,     0.00, 0,      0, 1.10000, 0.90000, 1.10000, 0.90000,  33, 8, 0.00000, 0.00000,  0.000
1.00000,   0.000,   0.000,     0.00,     0.00,     0.00, 0,      0, 1.10000, 0.90000, 1.10000, 0.90000,  33, 4, 0.00000, 0.00000,  0.000
   113,   110,   114,'1 ',1,1,1, 0.00000E+0, 0.00000E+0,2,'TRAFO 3W 1  ',1,   1,1.0000,   0,1.0000,   0,1.0000,   0,1.0000,'            '
 0.00000E+0, 2.00000E-4,   100.00, 0.00000E+0, 2.00000E-4,   100.00, 0.00000E+0, 2.00000E-4,   100.00,0.99967,  -3.0658
1.00000,   0.000,   0.000,     0.00,     0.00,     0.00, 0,      0, 1.10000, 0.90000, 1.10000, 0.90000,  33, 9, 0.00000, 0.00000,  0.000
1.00000,   0.000,   0.000,     0.00,     0.00,     0.00, 0,      0, 1.10000, 0.90000, 1.10000, 0.90000,  33, 8, 0.00000, 0.00000,  0.000
1.00000,   0.000,   0.000,     0.00,     0.00,     0.00, 0,      0, 1.10000, 0.90000, 1.10000, 0.90000,  33, 9, 0.00000, 0.00000,  0.000
0 / END OF TRANSFORMER DATA, BEGIN AREA DATA
0 / END OF AREA DATA, BEGIN TWO-TERMINAL DC DATA
'LINE       1',1,   20.0000,    500.00,      1.00,      0.00,    0.0000,   0.00000,'I',      0.00,  20,   1.00000
   111, 0,90.00, 5.00, 0.0000, 0.1780,   0.0,1.00000,0.51000,1.50000,0.51000,0.00625,     0,     0,     0,'1 ', 0.0000
   104, 0,90.00, 5.00, 0.0000, 0.1720,   0.0,1.00000,0.51000,1.50000,0.51000,0.00625,     0,     0,     0,'1 ', 0.0000
0 / END OF TWO-TERMINAL DC DATA, BEGIN VSC DC LINE DATA
0 / END OF VSC DC LINE DATA, BEGIN IMPEDANCE CORRECTION DATA
 1,   0.88,1.12000,   1.00,1.00000,   1.02,0.97900,   1.17,0.89500
 2,   0.90,1.30000,   1.00,1.00000,   1.10,0.83000
 3, -24.10,1.27000, -18.10,1.16600, -12.20,1.08200,  -6.00,1.06100,   0.00,1.00000,   6.00,1.06100,  12.20,1.08200,  18.10,1.16600,  24.10,1.27000
 4,   0.88,1.09300,   0.95,1.03000,   1.00,1.00000,   1.10,0.95000,   1.17,0.91600
 5, -45.00,1.74300, -36.00,1.42800, -27.00,1.26700, -18.00,1.15700,  -9.00,1.07400,   0.00,1.00000,   9.00,1.13800,  18.00,1.30500,  27.00,1.49800,  36.00,1.71900,  45.00,1.97200
 6, -45.00,1.72500, -36.00,1.41800, -27.00,1.26000, -18.00,1.15300,  -9.00,1.07300,   0.00,1.00000,   9.00,1.13500,  18.00,1.30000,  27.00,1.48900,  36.00,1.70500,  45.00,1.95200
 7, -45.00,2.07300,   0.00,1.00000,  45.00,2.07300
 8, -60.00,1.57180, -50.30,1.47940, -36.00,1.34310, -24.40,1.23250, -12.40,1.11820,   0.00,1.00000,  12.40,1.11820,  24.40,1.23250,  36.00,1.34310,  50.30,1.47940,  60.00,1.57180
 9, -40.00,1.40000, -30.00,1.30000, -20.00,1.20000, -10.00,1.10000,   0.00,1.00000,  10.00,1.10000,  20.00,1.20000,  30.00,1.30000,  40.00,1.40000
0 / END OF IMPEDANCE CORRECTION DATA, BEGIN MULTI-TERMINAL DC DATA
0 / END OF MULTI-TERMINAL DC DATA, BEGIN MULTI-SECTION LINE DATA
   109,   114,'&1',2,   401,   200
   109,   114,'&2',2,   501,   201
   109,   114,'&3',2,   601,   301
0 / END OF MULTI-SECTION LINE DATA, BEGIN ZONE DATA
0 / END OF ZONE DATA, BEGIN INTER-AREA TRANSFER DATA
0 / END OF INTER-AREA TRANSFER DATA, BEGIN OWNER DATA
0 / END OF OWNER DATA, BEGIN FACTS DEVICE DATA
'FACTS      1',   108,     0,1,    50.000,    10.000,1.00000,  9999.000,  9999.000,0.90000,1.10000,1.00000,     0.000, 0.05000,  100.0,   1,   0.00000,   0.00000,0,     0,"            "
0 / END OF FACTS DEVICE DATA, BEGIN SWITCHED SHUNT DATA
   101,1,0,1,1.00000,1.00000,     0,  100.0,'            ',   50.00, 5,  100.00
   113,1,0,1,1.00000,1.00000,     0,  100.0,'            ',   10.00, 2,    5.00
0 / END OF SWITCHED SHUNT DATA, BEGIN GNE DATA
0 / END OF GNE DATA, BEGIN INDUCTION MACHINE DATA
0 / END OF INDUCTION MACHINE DATA
Q
